V1 N001 0 SINE(0 5 4k)
R2 N002 N001 10
R4 N002 N003 8
R5 N003 0 4
.tran 0 1m 0 1u
.end
